CM  Helix and screen reflector for 2400 MHz
CE End CommentsGW 0 1 -48.0 -48.0 11 -39.0 -48.0 11 0.5
GW     1     1 -3.90000E+01 -4.80000E+01  1.10000E+01 -3.00000E+01 -4.80000E+01  1.10000E+01  5.00000E-01
GW     2     1 -3.00000E+01 -4.80000E+01  1.10000E+01 -2.10000E+01 -4.80000E+01  1.10000E+01  5.00000E-01
GW     3     1 -2.10000E+01 -4.80000E+01  1.10000E+01 -1.20000E+01 -4.80000E+01  1.10000E+01  5.00000E-01
GW     4     1 -1.20000E+01 -4.80000E+01  1.10000E+01 -3.00000E+00 -4.80000E+01  1.10000E+01  5.00000E-01
GW     5     1 -3.00000E+00 -4.80000E+01  1.10000E+01  6.00000E+00 -4.80000E+01  1.10000E+01  5.00000E-01
GW     6     1  6.00000E+00 -4.80000E+01  1.10000E+01  1.50000E+01 -4.80000E+01  1.10000E+01  5.00000E-01
GW     7     1  1.50000E+01 -4.80000E+01  1.10000E+01  2.40000E+01 -4.80000E+01  1.10000E+01  5.00000E-01
GW     8     1  2.40000E+01 -4.80000E+01  1.10000E+01  3.30000E+01 -4.80000E+01  1.10000E+01  5.00000E-01
GW     9     1  3.30000E+01 -4.80000E+01  1.10000E+01  4.20000E+01 -4.80000E+01  1.10000E+01  5.00000E-01
GW    10     1 -4.80000E+01 -3.90000E+01  1.10000E+01 -3.90000E+01 -3.90000E+01  1.10000E+01  5.00000E-01
GW    11     1 -3.90000E+01 -3.90000E+01  1.10000E+01 -3.00000E+01 -3.90000E+01  1.10000E+01  5.00000E-01
GW    12     1 -3.00000E+01 -3.90000E+01  1.10000E+01 -2.10000E+01 -3.90000E+01  1.10000E+01  5.00000E-01
GW    13     1 -2.10000E+01 -3.90000E+01  1.10000E+01 -1.20000E+01 -3.90000E+01  1.10000E+01  5.00000E-01
GW    14     1 -1.20000E+01 -3.90000E+01  1.10000E+01 -3.00000E+00 -3.90000E+01  1.10000E+01  5.00000E-01
GW    15     1 -3.00000E+00 -3.90000E+01  1.10000E+01  6.00000E+00 -3.90000E+01  1.10000E+01  5.00000E-01
GW    16     1  6.00000E+00 -3.90000E+01  1.10000E+01  1.50000E+01 -3.90000E+01  1.10000E+01  5.00000E-01
GW    17     1  1.50000E+01 -3.90000E+01  1.10000E+01  2.40000E+01 -3.90000E+01  1.10000E+01  5.00000E-01
GW    18     1  2.40000E+01 -3.90000E+01  1.10000E+01  3.30000E+01 -3.90000E+01  1.10000E+01  5.00000E-01
GW    19     1  3.30000E+01 -3.90000E+01  1.10000E+01  4.20000E+01 -3.90000E+01  1.10000E+01  5.00000E-01
GW    20     1 -4.80000E+01 -3.00000E+01  1.10000E+01 -3.90000E+01 -3.00000E+01  1.10000E+01  5.00000E-01
GW    21     1 -3.90000E+01 -3.00000E+01  1.10000E+01 -3.00000E+01 -3.00000E+01  1.10000E+01  5.00000E-01
GW    22     1 -3.00000E+01 -3.00000E+01  1.10000E+01 -2.10000E+01 -3.00000E+01  1.10000E+01  5.00000E-01
GW    23     1 -2.10000E+01 -3.00000E+01  1.10000E+01 -1.20000E+01 -3.00000E+01  1.10000E+01  5.00000E-01
GW    24     1 -1.20000E+01 -3.00000E+01  1.10000E+01 -3.00000E+00 -3.00000E+01  1.10000E+01  5.00000E-01
GW    25     1 -3.00000E+00 -3.00000E+01  1.10000E+01  6.00000E+00 -3.00000E+01  1.10000E+01  5.00000E-01
GW    26     1  6.00000E+00 -3.00000E+01  1.10000E+01  1.50000E+01 -3.00000E+01  1.10000E+01  5.00000E-01
GW    27     1  1.50000E+01 -3.00000E+01  1.10000E+01  2.40000E+01 -3.00000E+01  1.10000E+01  5.00000E-01
GW    28     1  2.40000E+01 -3.00000E+01  1.10000E+01  3.30000E+01 -3.00000E+01  1.10000E+01  5.00000E-01
GW    29     1  3.30000E+01 -3.00000E+01  1.10000E+01  4.20000E+01 -3.00000E+01  1.10000E+01  5.00000E-01
GW    30     1 -4.80000E+01 -2.10000E+01  1.10000E+01 -3.90000E+01 -2.10000E+01  1.10000E+01  5.00000E-01
GW    31     1 -3.90000E+01 -2.10000E+01  1.10000E+01 -3.00000E+01 -2.10000E+01  1.10000E+01  5.00000E-01
GW    32     1 -3.00000E+01 -2.10000E+01  1.10000E+01 -2.10000E+01 -2.10000E+01  1.10000E+01  5.00000E-01
GW    33     1 -2.10000E+01 -2.10000E+01  1.10000E+01 -1.20000E+01 -2.10000E+01  1.10000E+01  5.00000E-01
GW    34     1 -1.20000E+01 -2.10000E+01  1.10000E+01 -3.00000E+00 -2.10000E+01  1.10000E+01  5.00000E-01
GW    35     1 -3.00000E+00 -2.10000E+01  1.10000E+01  6.00000E+00 -2.10000E+01  1.10000E+01  5.00000E-01
GW    36     1  6.00000E+00 -2.10000E+01  1.10000E+01  1.50000E+01 -2.10000E+01  1.10000E+01  5.00000E-01
GW    37     1  1.50000E+01 -2.10000E+01  1.10000E+01  2.40000E+01 -2.10000E+01  1.10000E+01  5.00000E-01
GW    38     1  2.40000E+01 -2.10000E+01  1.10000E+01  3.30000E+01 -2.10000E+01  1.10000E+01  5.00000E-01
GW    39     1  3.30000E+01 -2.10000E+01  1.10000E+01  4.20000E+01 -2.10000E+01  1.10000E+01  5.00000E-01
GW    40     1 -4.80000E+01 -1.20000E+01  1.10000E+01 -3.90000E+01 -1.20000E+01  1.10000E+01  5.00000E-01
GW    41     1 -3.90000E+01 -1.20000E+01  1.10000E+01 -3.00000E+01 -1.20000E+01  1.10000E+01  5.00000E-01
GW    42     1 -3.00000E+01 -1.20000E+01  1.10000E+01 -2.10000E+01 -1.20000E+01  1.10000E+01  5.00000E-01
GW    43     1 -2.10000E+01 -1.20000E+01  1.10000E+01 -1.20000E+01 -1.20000E+01  1.10000E+01  5.00000E-01
GW    44     1 -1.20000E+01 -1.20000E+01  1.10000E+01 -3.00000E+00 -1.20000E+01  1.10000E+01  5.00000E-01
GW    45     1 -3.00000E+00 -1.20000E+01  1.10000E+01  6.00000E+00 -1.20000E+01  1.10000E+01  5.00000E-01
GW    46     1  6.00000E+00 -1.20000E+01  1.10000E+01  1.50000E+01 -1.20000E+01  1.10000E+01  5.00000E-01
GW    47     1  1.50000E+01 -1.20000E+01  1.10000E+01  2.40000E+01 -1.20000E+01  1.10000E+01  5.00000E-01
GW    48     1  2.40000E+01 -1.20000E+01  1.10000E+01  3.30000E+01 -1.20000E+01  1.10000E+01  5.00000E-01
GW    49     1  3.30000E+01 -1.20000E+01  1.10000E+01  4.20000E+01 -1.20000E+01  1.10000E+01  5.00000E-01
GW    50     1 -4.80000E+01 -3.00000E+00  1.10000E+01 -3.90000E+01 -3.00000E+00  1.10000E+01  5.00000E-01
GW    51     1 -3.90000E+01 -3.00000E+00  1.10000E+01 -3.00000E+01 -3.00000E+00  1.10000E+01  5.00000E-01
GW    52     1 -3.00000E+01 -3.00000E+00  1.10000E+01 -2.10000E+01 -3.00000E+00  1.10000E+01  5.00000E-01
GW    53     1 -2.10000E+01 -3.00000E+00  1.10000E+01 -1.20000E+01 -3.00000E+00  1.10000E+01  5.00000E-01
GW    54     1 -1.20000E+01 -3.00000E+00  1.10000E+01 -3.00000E+00 -3.00000E+00  1.10000E+01  5.00000E-01
GW    55     1 -3.00000E+00 -3.00000E+00  1.10000E+01  6.00000E+00 -3.00000E+00  1.10000E+01  5.00000E-01
GW    56     1  6.00000E+00 -3.00000E+00  1.10000E+01  1.50000E+01 -3.00000E+00  1.10000E+01  5.00000E-01
GW    57     1  1.50000E+01 -3.00000E+00  1.10000E+01  2.40000E+01 -3.00000E+00  1.10000E+01  5.00000E-01
GW    58     1  2.40000E+01 -3.00000E+00  1.10000E+01  3.30000E+01 -3.00000E+00  1.10000E+01  5.00000E-01
GW    59     1  3.30000E+01 -3.00000E+00  1.10000E+01  4.20000E+01 -3.00000E+00  1.10000E+01  5.00000E-01
GW    60     1 -4.80000E+01  6.00000E+00  1.10000E+01 -3.90000E+01  6.00000E+00  1.10000E+01  5.00000E-01
GW    61     1 -3.90000E+01  6.00000E+00  1.10000E+01 -3.00000E+01  6.00000E+00  1.10000E+01  5.00000E-01
GW    62     1 -3.00000E+01  6.00000E+00  1.10000E+01 -2.10000E+01  6.00000E+00  1.10000E+01  5.00000E-01
GW    63     1 -2.10000E+01  6.00000E+00  1.10000E+01 -1.20000E+01  6.00000E+00  1.10000E+01  5.00000E-01
GW    64     1 -1.20000E+01  6.00000E+00  1.10000E+01 -3.00000E+00  6.00000E+00  1.10000E+01  5.00000E-01
GW    65     1 -3.00000E+00  6.00000E+00  1.10000E+01  6.00000E+00  6.00000E+00  1.10000E+01  5.00000E-01
GW    66     1  6.00000E+00  6.00000E+00  1.10000E+01  1.50000E+01  6.00000E+00  1.10000E+01  5.00000E-01
GW    67     1  1.50000E+01  6.00000E+00  1.10000E+01  2.40000E+01  6.00000E+00  1.10000E+01  5.00000E-01
GW    68     1  2.40000E+01  6.00000E+00  1.10000E+01  3.30000E+01  6.00000E+00  1.10000E+01  5.00000E-01
GW    69     1  3.30000E+01  6.00000E+00  1.10000E+01  4.20000E+01  6.00000E+00  1.10000E+01  5.00000E-01
GW    70     1 -4.80000E+01  1.50000E+01  1.10000E+01 -3.90000E+01  1.50000E+01  1.10000E+01  5.00000E-01
GW    71     1 -3.90000E+01  1.50000E+01  1.10000E+01 -3.00000E+01  1.50000E+01  1.10000E+01  5.00000E-01
GW    72     1 -3.00000E+01  1.50000E+01  1.10000E+01 -2.10000E+01  1.50000E+01  1.10000E+01  5.00000E-01
GW    73     1 -2.10000E+01  1.50000E+01  1.10000E+01 -1.20000E+01  1.50000E+01  1.10000E+01  5.00000E-01
GW    74     1 -1.20000E+01  1.50000E+01  1.10000E+01 -3.00000E+00  1.50000E+01  1.10000E+01  5.00000E-01
GW    75     1 -3.00000E+00  1.50000E+01  1.10000E+01  6.00000E+00  1.50000E+01  1.10000E+01  5.00000E-01
GW    76     1  6.00000E+00  1.50000E+01  1.10000E+01  1.50000E+01  1.50000E+01  1.10000E+01  5.00000E-01
GW    77     1  1.50000E+01  1.50000E+01  1.10000E+01  2.40000E+01  1.50000E+01  1.10000E+01  5.00000E-01
GW    78     1  2.40000E+01  1.50000E+01  1.10000E+01  3.30000E+01  1.50000E+01  1.10000E+01  5.00000E-01
GW    79     1  3.30000E+01  1.50000E+01  1.10000E+01  4.20000E+01  1.50000E+01  1.10000E+01  5.00000E-01
GW    80     1 -4.80000E+01  2.40000E+01  1.10000E+01 -3.90000E+01  2.40000E+01  1.10000E+01  5.00000E-01
GW    81     1 -3.90000E+01  2.40000E+01  1.10000E+01 -3.00000E+01  2.40000E+01  1.10000E+01  5.00000E-01
GW    82     1 -3.00000E+01  2.40000E+01  1.10000E+01 -2.10000E+01  2.40000E+01  1.10000E+01  5.00000E-01
GW    83     1 -2.10000E+01  2.40000E+01  1.10000E+01 -1.20000E+01  2.40000E+01  1.10000E+01  5.00000E-01
GW    84     1 -1.20000E+01  2.40000E+01  1.10000E+01 -3.00000E+00  2.40000E+01  1.10000E+01  5.00000E-01
GW    85     1 -3.00000E+00  2.40000E+01  1.10000E+01  6.00000E+00  2.40000E+01  1.10000E+01  5.00000E-01
GW    86     1  6.00000E+00  2.40000E+01  1.10000E+01  1.50000E+01  2.40000E+01  1.10000E+01  5.00000E-01
GW    87     1  1.50000E+01  2.40000E+01  1.10000E+01  2.40000E+01  2.40000E+01  1.10000E+01  5.00000E-01
GW    88     1  2.40000E+01  2.40000E+01  1.10000E+01  3.30000E+01  2.40000E+01  1.10000E+01  5.00000E-01
GW    89     1  3.30000E+01  2.40000E+01  1.10000E+01  4.20000E+01  2.40000E+01  1.10000E+01  5.00000E-01
GW    90     1 -4.80000E+01  3.30000E+01  1.10000E+01 -3.90000E+01  3.30000E+01  1.10000E+01  5.00000E-01
GW    91     1 -3.90000E+01  3.30000E+01  1.10000E+01 -3.00000E+01  3.30000E+01  1.10000E+01  5.00000E-01
GW    92     1 -3.00000E+01  3.30000E+01  1.10000E+01 -2.10000E+01  3.30000E+01  1.10000E+01  5.00000E-01
GW    93     1 -2.10000E+01  3.30000E+01  1.10000E+01 -1.20000E+01  3.30000E+01  1.10000E+01  5.00000E-01
GW    94     1 -1.20000E+01  3.30000E+01  1.10000E+01 -3.00000E+00  3.30000E+01  1.10000E+01  5.00000E-01
GW    95     1 -3.00000E+00  3.30000E+01  1.10000E+01  6.00000E+00  3.30000E+01  1.10000E+01  5.00000E-01
GW    96     1  6.00000E+00  3.30000E+01  1.10000E+01  1.50000E+01  3.30000E+01  1.10000E+01  5.00000E-01
GW    97     1  1.50000E+01  3.30000E+01  1.10000E+01  2.40000E+01  3.30000E+01  1.10000E+01  5.00000E-01
GW    98     1  2.40000E+01  3.30000E+01  1.10000E+01  3.30000E+01  3.30000E+01  1.10000E+01  5.00000E-01
GW    99     1  3.30000E+01  3.30000E+01  1.10000E+01  4.20000E+01  3.30000E+01  1.10000E+01  5.00000E-01
GW   100     1 -4.80000E+01  4.20000E+01  1.10000E+01 -3.90000E+01  4.20000E+01  1.10000E+01  5.00000E-01
GW   101     1 -3.90000E+01  4.20000E+01  1.10000E+01 -3.00000E+01  4.20000E+01  1.10000E+01  5.00000E-01
GW   102     1 -3.00000E+01  4.20000E+01  1.10000E+01 -2.10000E+01  4.20000E+01  1.10000E+01  5.00000E-01
GW   103     1 -2.10000E+01  4.20000E+01  1.10000E+01 -1.20000E+01  4.20000E+01  1.10000E+01  5.00000E-01
GW   104     1 -1.20000E+01  4.20000E+01  1.10000E+01 -3.00000E+00  4.20000E+01  1.10000E+01  5.00000E-01
GW   105     1 -3.00000E+00  4.20000E+01  1.10000E+01  6.00000E+00  4.20000E+01  1.10000E+01  5.00000E-01
GW   106     1  6.00000E+00  4.20000E+01  1.10000E+01  1.50000E+01  4.20000E+01  1.10000E+01  5.00000E-01
GW   107     1  1.50000E+01  4.20000E+01  1.10000E+01  2.40000E+01  4.20000E+01  1.10000E+01  5.00000E-01
GW   108     1  2.40000E+01  4.20000E+01  1.10000E+01  3.30000E+01  4.20000E+01  1.10000E+01  5.00000E-01
GW   109     1  3.30000E+01  4.20000E+01  1.10000E+01  4.20000E+01  4.20000E+01  1.10000E+01  5.00000E-01
GW   110     1 -4.80000E+01 -4.80000E+01  1.10000E+01 -4.80000E+01 -3.90000E+01  1.10000E+01  5.00000E-01
GW   111     1 -4.80000E+01 -3.90000E+01  1.10000E+01 -4.80000E+01 -3.00000E+01  1.10000E+01  5.00000E-01
GW   112     1 -4.80000E+01 -3.00000E+01  1.10000E+01 -4.80000E+01 -2.10000E+01  1.10000E+01  5.00000E-01
GW   113     1 -4.80000E+01 -2.10000E+01  1.10000E+01 -4.80000E+01 -1.20000E+01  1.10000E+01  5.00000E-01
GW   114     1 -4.80000E+01 -1.20000E+01  1.10000E+01 -4.80000E+01 -3.00000E+00  1.10000E+01  5.00000E-01
GW   115     1 -4.80000E+01 -3.00000E+00  1.10000E+01 -4.80000E+01  6.00000E+00  1.10000E+01  5.00000E-01
GW   116     1 -4.80000E+01  6.00000E+00  1.10000E+01 -4.80000E+01  1.50000E+01  1.10000E+01  5.00000E-01
GW   117     1 -4.80000E+01  1.50000E+01  1.10000E+01 -4.80000E+01  2.40000E+01  1.10000E+01  5.00000E-01
GW   118     1 -4.80000E+01  2.40000E+01  1.10000E+01 -4.80000E+01  3.30000E+01  1.10000E+01  5.00000E-01
GW   119     1 -4.80000E+01  3.30000E+01  1.10000E+01 -4.80000E+01  4.20000E+01  1.10000E+01  5.00000E-01
GW   120     1 -3.90000E+01 -4.80000E+01  1.10000E+01 -3.90000E+01 -3.90000E+01  1.10000E+01  5.00000E-01
GW   121     1 -3.90000E+01 -3.90000E+01  1.10000E+01 -3.90000E+01 -3.00000E+01  1.10000E+01  5.00000E-01
GW   122     1 -3.90000E+01 -3.00000E+01  1.10000E+01 -3.90000E+01 -2.10000E+01  1.10000E+01  5.00000E-01
GW   123     1 -3.90000E+01 -2.10000E+01  1.10000E+01 -3.90000E+01 -1.20000E+01  1.10000E+01  5.00000E-01
GW   124     1 -3.90000E+01 -1.20000E+01  1.10000E+01 -3.90000E+01 -3.00000E+00  1.10000E+01  5.00000E-01
GW   125     1 -3.90000E+01 -3.00000E+00  1.10000E+01 -3.90000E+01  6.00000E+00  1.10000E+01  5.00000E-01
GW   126     1 -3.90000E+01  6.00000E+00  1.10000E+01 -3.90000E+01  1.50000E+01  1.10000E+01  5.00000E-01
GW   127     1 -3.90000E+01  1.50000E+01  1.10000E+01 -3.90000E+01  2.40000E+01  1.10000E+01  5.00000E-01
GW   128     1 -3.90000E+01  2.40000E+01  1.10000E+01 -3.90000E+01  3.30000E+01  1.10000E+01  5.00000E-01
GW   129     1 -3.90000E+01  3.30000E+01  1.10000E+01 -3.90000E+01  4.20000E+01  1.10000E+01  5.00000E-01
GW   130     1 -3.00000E+01 -4.80000E+01  1.10000E+01 -3.00000E+01 -3.90000E+01  1.10000E+01  5.00000E-01
GW   131     1 -3.00000E+01 -3.90000E+01  1.10000E+01 -3.00000E+01 -3.00000E+01  1.10000E+01  5.00000E-01
GW   132     1 -3.00000E+01 -3.00000E+01  1.10000E+01 -3.00000E+01 -2.10000E+01  1.10000E+01  5.00000E-01
GW   133     1 -3.00000E+01 -2.10000E+01  1.10000E+01 -3.00000E+01 -1.20000E+01  1.10000E+01  5.00000E-01
GW   134     1 -3.00000E+01 -1.20000E+01  1.10000E+01 -3.00000E+01 -3.00000E+00  1.10000E+01  5.00000E-01
GW   135     1 -3.00000E+01 -3.00000E+00  1.10000E+01 -3.00000E+01  6.00000E+00  1.10000E+01  5.00000E-01
GW   136     1 -3.00000E+01  6.00000E+00  1.10000E+01 -3.00000E+01  1.50000E+01  1.10000E+01  5.00000E-01
GW   137     1 -3.00000E+01  1.50000E+01  1.10000E+01 -3.00000E+01  2.40000E+01  1.10000E+01  5.00000E-01
GW   138     1 -3.00000E+01  2.40000E+01  1.10000E+01 -3.00000E+01  3.30000E+01  1.10000E+01  5.00000E-01
GW   139     1 -3.00000E+01  3.30000E+01  1.10000E+01 -3.00000E+01  4.20000E+01  1.10000E+01  5.00000E-01
GW   140     1 -2.10000E+01 -4.80000E+01  1.10000E+01 -2.10000E+01 -3.90000E+01  1.10000E+01  5.00000E-01
GW   141     1 -2.10000E+01 -3.90000E+01  1.10000E+01 -2.10000E+01 -3.00000E+01  1.10000E+01  5.00000E-01
GW   142     1 -2.10000E+01 -3.00000E+01  1.10000E+01 -2.10000E+01 -2.10000E+01  1.10000E+01  5.00000E-01
GW   143     1 -2.10000E+01 -2.10000E+01  1.10000E+01 -2.10000E+01 -1.20000E+01  1.10000E+01  5.00000E-01
GW   144     1 -2.10000E+01 -1.20000E+01  1.10000E+01 -2.10000E+01 -3.00000E+00  1.10000E+01  5.00000E-01
GW   145     1 -2.10000E+01 -3.00000E+00  1.10000E+01 -2.10000E+01  6.00000E+00  1.10000E+01  5.00000E-01
GW   146     1 -2.10000E+01  6.00000E+00  1.10000E+01 -2.10000E+01  1.50000E+01  1.10000E+01  5.00000E-01
GW   147     1 -2.10000E+01  1.50000E+01  1.10000E+01 -2.10000E+01  2.40000E+01  1.10000E+01  5.00000E-01
GW   148     1 -2.10000E+01  2.40000E+01  1.10000E+01 -2.10000E+01  3.30000E+01  1.10000E+01  5.00000E-01
GW   149     1 -2.10000E+01  3.30000E+01  1.10000E+01 -2.10000E+01  4.20000E+01  1.10000E+01  5.00000E-01
GW   150     1 -1.20000E+01 -4.80000E+01  1.10000E+01 -1.20000E+01 -3.90000E+01  1.10000E+01  5.00000E-01
GW   151     1 -1.20000E+01 -3.90000E+01  1.10000E+01 -1.20000E+01 -3.00000E+01  1.10000E+01  5.00000E-01
GW   152     1 -1.20000E+01 -3.00000E+01  1.10000E+01 -1.20000E+01 -2.10000E+01  1.10000E+01  5.00000E-01
GW   153     1 -1.20000E+01 -2.10000E+01  1.10000E+01 -1.20000E+01 -1.20000E+01  1.10000E+01  5.00000E-01
GW   154     1 -1.20000E+01 -1.20000E+01  1.10000E+01 -1.20000E+01 -3.00000E+00  1.10000E+01  5.00000E-01
GW   155     1 -1.20000E+01 -3.00000E+00  1.10000E+01 -1.20000E+01  6.00000E+00  1.10000E+01  5.00000E-01
GW   156     1 -1.20000E+01  6.00000E+00  1.10000E+01 -1.20000E+01  1.50000E+01  1.10000E+01  5.00000E-01
GW   157     1 -1.20000E+01  1.50000E+01  1.10000E+01 -1.20000E+01  2.40000E+01  1.10000E+01  5.00000E-01
GW   158     1 -1.20000E+01  2.40000E+01  1.10000E+01 -1.20000E+01  3.30000E+01  1.10000E+01  5.00000E-01
GW   159     1 -1.20000E+01  3.30000E+01  1.10000E+01 -1.20000E+01  4.20000E+01  1.10000E+01  5.00000E-01
GW   160     1 -3.00000E+00 -4.80000E+01  1.10000E+01 -3.00000E+00 -3.90000E+01  1.10000E+01  5.00000E-01
GW   161     1 -3.00000E+00 -3.90000E+01  1.10000E+01 -3.00000E+00 -3.00000E+01  1.10000E+01  5.00000E-01
GW   162     1 -3.00000E+00 -3.00000E+01  1.10000E+01 -3.00000E+00 -2.10000E+01  1.10000E+01  5.00000E-01
GW   163     1 -3.00000E+00 -2.10000E+01  1.10000E+01 -3.00000E+00 -1.20000E+01  1.10000E+01  5.00000E-01
GW   164     1 -3.00000E+00 -1.20000E+01  1.10000E+01 -3.00000E+00 -3.00000E+00  1.10000E+01  5.00000E-01
GW   165     1 -3.00000E+00 -3.00000E+00  1.10000E+01 -3.00000E+00  6.00000E+00  1.10000E+01  5.00000E-01
GW   166     1 -3.00000E+00  6.00000E+00  1.10000E+01 -3.00000E+00  1.50000E+01  1.10000E+01  5.00000E-01
GW   167     1 -3.00000E+00  1.50000E+01  1.10000E+01 -3.00000E+00  2.40000E+01  1.10000E+01  5.00000E-01
GW   168     1 -3.00000E+00  2.40000E+01  1.10000E+01 -3.00000E+00  3.30000E+01  1.10000E+01  5.00000E-01
GW   169     1 -3.00000E+00  3.30000E+01  1.10000E+01 -3.00000E+00  4.20000E+01  1.10000E+01  5.00000E-01
GW   170     1  6.00000E+00 -4.80000E+01  1.10000E+01  6.00000E+00 -3.90000E+01  1.10000E+01  5.00000E-01
GW   171     1  6.00000E+00 -3.90000E+01  1.10000E+01  6.00000E+00 -3.00000E+01  1.10000E+01  5.00000E-01
GW   172     1  6.00000E+00 -3.00000E+01  1.10000E+01  6.00000E+00 -2.10000E+01  1.10000E+01  5.00000E-01
GW   173     1  6.00000E+00 -2.10000E+01  1.10000E+01  6.00000E+00 -1.20000E+01  1.10000E+01  5.00000E-01
GW   174     1  6.00000E+00 -1.20000E+01  1.10000E+01  6.00000E+00 -3.00000E+00  1.10000E+01  5.00000E-01
GW   175     1  6.00000E+00 -3.00000E+00  1.10000E+01  6.00000E+00  6.00000E+00  1.10000E+01  5.00000E-01
GW   176     1  6.00000E+00  6.00000E+00  1.10000E+01  6.00000E+00  1.50000E+01  1.10000E+01  5.00000E-01
GW   177     1  6.00000E+00  1.50000E+01  1.10000E+01  6.00000E+00  2.40000E+01  1.10000E+01  5.00000E-01
GW   178     1  6.00000E+00  2.40000E+01  1.10000E+01  6.00000E+00  3.30000E+01  1.10000E+01  5.00000E-01
GW   179     1  6.00000E+00  3.30000E+01  1.10000E+01  6.00000E+00  4.20000E+01  1.10000E+01  5.00000E-01
GW   180     1  1.50000E+01 -4.80000E+01  1.10000E+01  1.50000E+01 -3.90000E+01  1.10000E+01  5.00000E-01
GW   181     1  1.50000E+01 -3.90000E+01  1.10000E+01  1.50000E+01 -3.00000E+01  1.10000E+01  5.00000E-01
GW   182     1  1.50000E+01 -3.00000E+01  1.10000E+01  1.50000E+01 -2.10000E+01  1.10000E+01  5.00000E-01
GW   183     1  1.50000E+01 -2.10000E+01  1.10000E+01  1.50000E+01 -1.20000E+01  1.10000E+01  5.00000E-01
GW   184     1  1.50000E+01 -1.20000E+01  1.10000E+01  1.50000E+01 -3.00000E+00  1.10000E+01  5.00000E-01
GW   185     1  1.50000E+01 -3.00000E+00  1.10000E+01  1.50000E+01  6.00000E+00  1.10000E+01  5.00000E-01
GW   186     1  1.50000E+01  6.00000E+00  1.10000E+01  1.50000E+01  1.50000E+01  1.10000E+01  5.00000E-01
GW   187     1  1.50000E+01  1.50000E+01  1.10000E+01  1.50000E+01  2.40000E+01  1.10000E+01  5.00000E-01
GW   188     1  1.50000E+01  2.40000E+01  1.10000E+01  1.50000E+01  3.30000E+01  1.10000E+01  5.00000E-01
GW   189     1  1.50000E+01  3.30000E+01  1.10000E+01  1.50000E+01  4.20000E+01  1.10000E+01  5.00000E-01
GW   190     1  2.40000E+01 -4.80000E+01  1.10000E+01  2.40000E+01 -3.90000E+01  1.10000E+01  5.00000E-01
GW   191     1  2.40000E+01 -3.90000E+01  1.10000E+01  2.40000E+01 -3.00000E+01  1.10000E+01  5.00000E-01
GW   192     1  2.40000E+01 -3.00000E+01  1.10000E+01  2.40000E+01 -2.10000E+01  1.10000E+01  5.00000E-01
GW   193     1  2.40000E+01 -2.10000E+01  1.10000E+01  2.40000E+01 -1.20000E+01  1.10000E+01  5.00000E-01
GW   194     1  2.40000E+01 -1.20000E+01  1.10000E+01  2.40000E+01 -3.00000E+00  1.10000E+01  5.00000E-01
GW   195     1  2.40000E+01 -3.00000E+00  1.10000E+01  2.40000E+01  6.00000E+00  1.10000E+01  5.00000E-01
GW   196     1  2.40000E+01  6.00000E+00  1.10000E+01  2.40000E+01  1.50000E+01  1.10000E+01  5.00000E-01
GW   197     1  2.40000E+01  1.50000E+01  1.10000E+01  2.40000E+01  2.40000E+01  1.10000E+01  5.00000E-01
GW   198     1  2.40000E+01  2.40000E+01  1.10000E+01  2.40000E+01  3.30000E+01  1.10000E+01  5.00000E-01
GW   199     1  2.40000E+01  3.30000E+01  1.10000E+01  2.40000E+01  4.20000E+01  1.10000E+01  5.00000E-01
GW   200     1  3.30000E+01 -4.80000E+01  1.10000E+01  3.30000E+01 -3.90000E+01  1.10000E+01  5.00000E-01
GW   201     1  3.30000E+01 -3.90000E+01  1.10000E+01  3.30000E+01 -3.00000E+01  1.10000E+01  5.00000E-01
GW   202     1  3.30000E+01 -3.00000E+01  1.10000E+01  3.30000E+01 -2.10000E+01  1.10000E+01  5.00000E-01
GW   203     1  3.30000E+01 -2.10000E+01  1.10000E+01  3.30000E+01 -1.20000E+01  1.10000E+01  5.00000E-01
GW   204     1  3.30000E+01 -1.20000E+01  1.10000E+01  3.30000E+01 -3.00000E+00  1.10000E+01  5.00000E-01
GW   205     1  3.30000E+01 -3.00000E+00  1.10000E+01  3.30000E+01  6.00000E+00  1.10000E+01  5.00000E-01
GW   206     1  3.30000E+01  6.00000E+00  1.10000E+01  3.30000E+01  1.50000E+01  1.10000E+01  5.00000E-01
GW   207     1  3.30000E+01  1.50000E+01  1.10000E+01  3.30000E+01  2.40000E+01  1.10000E+01  5.00000E-01
GW   208     1  3.30000E+01  2.40000E+01  1.10000E+01  3.30000E+01  3.30000E+01  1.10000E+01  5.00000E-01
GW   209     1  3.30000E+01  3.30000E+01  1.10000E+01  3.30000E+01  4.20000E+01  1.10000E+01  5.00000E-01
GW   210     1  4.20000E+01 -4.80000E+01  1.10000E+01  4.20000E+01 -3.90000E+01  1.10000E+01  5.00000E-01
GW   211     1  4.20000E+01 -3.90000E+01  1.10000E+01  4.20000E+01 -3.00000E+01  1.10000E+01  5.00000E-01
GW   212     1  4.20000E+01 -3.00000E+01  1.10000E+01  4.20000E+01 -2.10000E+01  1.10000E+01  5.00000E-01
GW   213     1  4.20000E+01 -2.10000E+01  1.10000E+01  4.20000E+01 -1.20000E+01  1.10000E+01  5.00000E-01
GW   214     1  4.20000E+01 -1.20000E+01  1.10000E+01  4.20000E+01 -3.00000E+00  1.10000E+01  5.00000E-01
GW   215     1  4.20000E+01 -3.00000E+00  1.10000E+01  4.20000E+01  6.00000E+00  1.10000E+01  5.00000E-01
GW   216     1  4.20000E+01  6.00000E+00  1.10000E+01  4.20000E+01  1.50000E+01  1.10000E+01  5.00000E-01
GW   217     1  4.20000E+01  1.50000E+01  1.10000E+01  4.20000E+01  2.40000E+01  1.10000E+01  5.00000E-01
GW   218     1  4.20000E+01  2.40000E+01  1.10000E+01  4.20000E+01  3.30000E+01  1.10000E+01  5.00000E-01
GW   219     1  4.20000E+01  3.30000E+01  1.10000E+01  4.20000E+01  4.20000E+01  1.10000E+01  5.00000E-01
GW   220     1 -1.00000E+02 -1.00000E+02  0.00000E+00 -8.00000E+01 -1.00000E+02  0.00000E+00  5.00000E-01
GW   221     1 -8.00000E+01 -1.00000E+02  0.00000E+00 -6.00000E+01 -1.00000E+02  0.00000E+00  5.00000E-01
GW   222     1 -6.00000E+01 -1.00000E+02  0.00000E+00 -4.00000E+01 -1.00000E+02  0.00000E+00  5.00000E-01
GW   223     1 -4.00000E+01 -1.00000E+02  0.00000E+00 -2.00000E+01 -1.00000E+02  0.00000E+00  5.00000E-01
GW   224     1 -2.00000E+01 -1.00000E+02  0.00000E+00  0.00000E+00 -1.00000E+02  0.00000E+00  5.00000E-01
GW   225     1  0.00000E+00 -1.00000E+02  0.00000E+00  2.00000E+01 -1.00000E+02  0.00000E+00  5.00000E-01
GW   226     1  2.00000E+01 -1.00000E+02  0.00000E+00  4.00000E+01 -1.00000E+02  0.00000E+00  5.00000E-01
GW   227     1  4.00000E+01 -1.00000E+02  0.00000E+00  6.00000E+01 -1.00000E+02  0.00000E+00  5.00000E-01
GW   228     1  6.00000E+01 -1.00000E+02  0.00000E+00  8.00000E+01 -1.00000E+02  0.00000E+00  5.00000E-01
GW   229     1  8.00000E+01 -1.00000E+02  0.00000E+00  1.00000E+02 -1.00000E+02  0.00000E+00  5.00000E-01
GW   230     1 -1.00000E+02 -8.00000E+01  0.00000E+00 -8.00000E+01 -8.00000E+01  0.00000E+00  5.00000E-01
GW   231     1 -8.00000E+01 -8.00000E+01  0.00000E+00 -6.00000E+01 -8.00000E+01  0.00000E+00  5.00000E-01
GW   232     1 -6.00000E+01 -8.00000E+01  0.00000E+00 -4.00000E+01 -8.00000E+01  0.00000E+00  5.00000E-01
GW   233     1 -4.00000E+01 -8.00000E+01  0.00000E+00 -2.00000E+01 -8.00000E+01  0.00000E+00  5.00000E-01
GW   234     1 -2.00000E+01 -8.00000E+01  0.00000E+00  0.00000E+00 -8.00000E+01  0.00000E+00  5.00000E-01
GW   235     1  0.00000E+00 -8.00000E+01  0.00000E+00  2.00000E+01 -8.00000E+01  0.00000E+00  5.00000E-01
GW   236     1  2.00000E+01 -8.00000E+01  0.00000E+00  4.00000E+01 -8.00000E+01  0.00000E+00  5.00000E-01
GW   237     1  4.00000E+01 -8.00000E+01  0.00000E+00  6.00000E+01 -8.00000E+01  0.00000E+00  5.00000E-01
GW   238     1  6.00000E+01 -8.00000E+01  0.00000E+00  8.00000E+01 -8.00000E+01  0.00000E+00  5.00000E-01
GW   239     1  8.00000E+01 -8.00000E+01  0.00000E+00  1.00000E+02 -8.00000E+01  0.00000E+00  5.00000E-01
GW   240     1 -1.00000E+02 -6.00000E+01  0.00000E+00 -8.00000E+01 -6.00000E+01  0.00000E+00  5.00000E-01
GW   241     1 -8.00000E+01 -6.00000E+01  0.00000E+00 -6.00000E+01 -6.00000E+01  0.00000E+00  5.00000E-01
GW   242     1 -6.00000E+01 -6.00000E+01  0.00000E+00 -4.00000E+01 -6.00000E+01  0.00000E+00  5.00000E-01
GW   243     1 -4.00000E+01 -6.00000E+01  0.00000E+00 -2.00000E+01 -6.00000E+01  0.00000E+00  5.00000E-01
GW   244     1 -2.00000E+01 -6.00000E+01  0.00000E+00  0.00000E+00 -6.00000E+01  0.00000E+00  5.00000E-01
GW   245     1  0.00000E+00 -6.00000E+01  0.00000E+00  2.00000E+01 -6.00000E+01  0.00000E+00  5.00000E-01
GW   246     1  2.00000E+01 -6.00000E+01  0.00000E+00  4.00000E+01 -6.00000E+01  0.00000E+00  5.00000E-01
GW   247     1  4.00000E+01 -6.00000E+01  0.00000E+00  6.00000E+01 -6.00000E+01  0.00000E+00  5.00000E-01
GW   248     1  6.00000E+01 -6.00000E+01  0.00000E+00  8.00000E+01 -6.00000E+01  0.00000E+00  5.00000E-01
GW   249     1  8.00000E+01 -6.00000E+01  0.00000E+00  1.00000E+02 -6.00000E+01  0.00000E+00  5.00000E-01
GW   250     1 -1.00000E+02 -4.00000E+01  0.00000E+00 -8.00000E+01 -4.00000E+01  0.00000E+00  5.00000E-01
GW   251     1 -8.00000E+01 -4.00000E+01  0.00000E+00 -6.00000E+01 -4.00000E+01  0.00000E+00  5.00000E-01
GW   252     1 -6.00000E+01 -4.00000E+01  0.00000E+00 -4.00000E+01 -4.00000E+01  0.00000E+00  5.00000E-01
GW   253     1 -4.00000E+01 -4.00000E+01  0.00000E+00 -2.00000E+01 -4.00000E+01  0.00000E+00  5.00000E-01
GW   254     1 -2.00000E+01 -4.00000E+01  0.00000E+00  0.00000E+00 -4.00000E+01  0.00000E+00  5.00000E-01
GW   255     1  0.00000E+00 -4.00000E+01  0.00000E+00  2.00000E+01 -4.00000E+01  0.00000E+00  5.00000E-01
GW   256     1  2.00000E+01 -4.00000E+01  0.00000E+00  4.00000E+01 -4.00000E+01  0.00000E+00  5.00000E-01
GW   257     1  4.00000E+01 -4.00000E+01  0.00000E+00  6.00000E+01 -4.00000E+01  0.00000E+00  5.00000E-01
GW   258     1  6.00000E+01 -4.00000E+01  0.00000E+00  8.00000E+01 -4.00000E+01  0.00000E+00  5.00000E-01
GW   259     1  8.00000E+01 -4.00000E+01  0.00000E+00  1.00000E+02 -4.00000E+01  0.00000E+00  5.00000E-01
GW   260     1 -1.00000E+02 -2.00000E+01  0.00000E+00 -8.00000E+01 -2.00000E+01  0.00000E+00  5.00000E-01
GW   261     1 -8.00000E+01 -2.00000E+01  0.00000E+00 -6.00000E+01 -2.00000E+01  0.00000E+00  5.00000E-01
GW   262     1 -6.00000E+01 -2.00000E+01  0.00000E+00 -4.00000E+01 -2.00000E+01  0.00000E+00  5.00000E-01
GW   263     1 -4.00000E+01 -2.00000E+01  0.00000E+00 -2.00000E+01 -2.00000E+01  0.00000E+00  5.00000E-01
GW   264     1 -2.00000E+01 -2.00000E+01  0.00000E+00  0.00000E+00 -2.00000E+01  0.00000E+00  5.00000E-01
GW   265     1  0.00000E+00 -2.00000E+01  0.00000E+00  2.00000E+01 -2.00000E+01  0.00000E+00  5.00000E-01
GW   266     1  2.00000E+01 -2.00000E+01  0.00000E+00  4.00000E+01 -2.00000E+01  0.00000E+00  5.00000E-01
GW   267     1  4.00000E+01 -2.00000E+01  0.00000E+00  6.00000E+01 -2.00000E+01  0.00000E+00  5.00000E-01
GW   268     1  6.00000E+01 -2.00000E+01  0.00000E+00  8.00000E+01 -2.00000E+01  0.00000E+00  5.00000E-01
GW   269     1  8.00000E+01 -2.00000E+01  0.00000E+00  1.00000E+02 -2.00000E+01  0.00000E+00  5.00000E-01
GW   270     1 -1.00000E+02  0.00000E+00  0.00000E+00 -8.00000E+01  0.00000E+00  0.00000E+00  5.00000E-01
GW   271     1 -8.00000E+01  0.00000E+00  0.00000E+00 -6.00000E+01  0.00000E+00  0.00000E+00  5.00000E-01
GW   272     1 -6.00000E+01  0.00000E+00  0.00000E+00 -4.00000E+01  0.00000E+00  0.00000E+00  5.00000E-01
GW   273     1 -4.00000E+01  0.00000E+00  0.00000E+00 -2.00000E+01  0.00000E+00  0.00000E+00  5.00000E-01
GW   274     1 -2.00000E+01  0.00000E+00  0.00000E+00  0.00000E+00  0.00000E+00  0.00000E+00  5.00000E-01
GW   275     1  0.00000E+00  0.00000E+00  0.00000E+00  2.00000E+01  0.00000E+00  0.00000E+00  5.00000E-01
GW   276     1  2.00000E+01  0.00000E+00  0.00000E+00  4.00000E+01  0.00000E+00  0.00000E+00  5.00000E-01
GW   277     1  4.00000E+01  0.00000E+00  0.00000E+00  6.00000E+01  0.00000E+00  0.00000E+00  5.00000E-01
GW   278     1  6.00000E+01  0.00000E+00  0.00000E+00  8.00000E+01  0.00000E+00  0.00000E+00  5.00000E-01
GW   279     1  8.00000E+01  0.00000E+00  0.00000E+00  1.00000E+02  0.00000E+00  0.00000E+00  5.00000E-01
GW   280     1 -1.00000E+02  2.00000E+01  0.00000E+00 -8.00000E+01  2.00000E+01  0.00000E+00  5.00000E-01
GW   281     1 -8.00000E+01  2.00000E+01  0.00000E+00 -6.00000E+01  2.00000E+01  0.00000E+00  5.00000E-01
GW   282     1 -6.00000E+01  2.00000E+01  0.00000E+00 -4.00000E+01  2.00000E+01  0.00000E+00  5.00000E-01