CM  Helix and screen reflector for 143.05 MHz
CE End Comments
GH     1    50  1.29700E+00  6.48500E-01  1.62100E-01  1.62100E-01  1.62100E-01  1.62100E-01  2.00000E-02
GM     1     3  0.00000E+00  0.00000E+00  9.00000E+01  0.00000E+00  0.00000E+00  0.00000E+00  1.00000E+00
GW    10     2  0.00000E+00  0.00000E+00  6.48500E-01 -1.62100E-01  0.00000E+00  6.48500E-01  1.00000E-02
GW    11     2  0.00000E+00  0.00000E+00  6.48500E-01  1.62100E-01  0.00000E+00  6.48500E-01  1.00000E-02
GW    12     2  0.00000E+00  0.00000E+00  6.48500E-01  0.00000E+00 -1.62100E-01  6.48500E-01  1.00000E-02
GW    13     2  0.00000E+00  0.00000E+00  6.48500E-01  0.00000E+00  1.62100E-01  6.48500E-01  1.00000E-02
SP     0     1 -1.00000E+00 -1.00000E+00 -0.1  1.00000E+00 -1.00000E+00 -0.1  0.00000E+00
SC     0     0  1.00000E+00  1.00000E+00 -0.1  0.00000E+00  0.00000E+00  0.00000E+00  0.00000E+00
GE     0     0  0.00000E+00  0.00000E+00  0.00000E+00  0.00000E+00  0.00000E+00  0.00000E+00  0.00000E+00
EX     0     1     1      0  1.00000E+00  0.00000E+00  0.00000E+00  0.00000E+00  0.00000E+00  0.00000E+00
EX     0     2     1      0  0.00000E+00  1.00000E+00  0.00000E+00  0.00000E+00  0.00000E+00  0.00000E+00
EX     0     3     1      0 -1.00000E+00  0.00000E+00  0.00000E+00  0.00000E+00  0.00000E+00  0.00000E+00
EX     0     4     1      0  0.00000E+00 -1.00000E+00  0.00000E+00  0.00000E+00  0.00000E+00  0.00000E+00
FR     0     5     0      0  1.40000E+02  1.00000E+01  0.00000E+00  0.00000E+00  0.00000E+00  0.00000E+00
RP     0    25    50      0  0.00000E+00  0.00000E+00  5.00000E+00  5.00000E+00  0.00000E+00  0.00000E+00
EN     0     0     0      0  0.00000E+00  0.00000E+00  0.00000E+00  0.00000E+00  0.00000E+00  0.00000E+00
