CM  Helix without screen reflector for 143.05 MHz
CE End Comments
GW     1     2  0.1198  0.00000E+00        -0.02  0.1198  0.00000E+00            0  1.00000E-02
GH     1    50  0.4666  0.2333  0.1198  0.1198  0.1198  0.1198  2.00000E-02
GM     1     3  0.00000E+00  0.00000E+00  9.00000E+01  0.00000E+00  0.00000E+00  0.00000E+00  1.00000E+00
GW    10     2  0.00000E+00  0.00000E+00  0.2333 -0.1198  0.00000E+00  0.2333  1.00000E-02
GW    11     2  0.00000E+00  0.00000E+00  0.2333  0.1198  0.00000E+00  0.2333  1.00000E-02
GW    12     2  0.00000E+00  0.00000E+00  0.2333  0.00000E+00 -0.1198  0.2333  1.00000E-02
GW    13     2  0.00000E+00  0.00000E+00  0.2333  0.00000E+00  0.1198  0.2333  1.00000E-02
GW    20     2  0.00000E+00  0.00000E+00        -0.02 -0.1198  0.00000E+00        -0.02  1.00000E-02
GW    21     2  0.00000E+00  0.00000E+00        -0.02  0.1198  0.00000E+00        -0.02  1.00000E-02
GW    22     2  0.00000E+00  0.00000E+00        -0.02  0.00000E+00 -0.1198        -0.02  1.00000E-02
GW    23     2  0.00000E+00  0.00000E+00        -0.02  0.00000E+00  0.1198        -0.02  1.00000E-02
GE     0     0  0.00000E+00  0.00000E+00  0.00000E+00  0.00000E+00  0.00000E+00  0.00000E+00  0.00000E+00
EX     0     1     1      0  1.00000E+00  0.00000E+00  0.00000E+00  0.00000E+00  0.00000E+00  0.00000E+00
EX     0     2     1      0  0.00000E+00  1.00000E+00  0.00000E+00  0.00000E+00  0.00000E+00  0.00000E+00
EX     0     3     1      0  -1.00000E+00  0.00000E+00  0.00000E+00  0.00000E+00  0.00000E+00  0.00000E+00
EX     0     4     1      0  0.00000E+00  -1.00000E+00  0.00000E+00  0.00000E+00  0.00000E+00  0.00000E+00
FR     0    50     0      0  1.40000E+02  1.00000E-01  0.00000E+00  0.00000E+00  0.00000E+00  0.00000E+00
RP     0    36    60      0  0.00000E+00  0.00000E+00  5.00000E+00  5.00000E+00  0.00000E+00  0.00000E+00
EN     0     0     0      0  0.00000E+00  0.00000E+00  0.00000E+00  0.00000E+00  0.00000E+00  0.00000E+00
